omf/scratch/CIGAR/test_large-R5-35.00-1.glm_CLEAN.glm
clock {
	timezone EST+8EDT;
	starttime '2009-01-01 12:00:00';
	stoptime '2009-01-01 12:15:00';
};

#set profiler=1 module assert;
module tape;
module powerflow {
	solver_method NR;
	default_maximum_voltage_error 1e-6;
};

object regulator {
	phases ABCN;
	from R5-35-00-1_node_339;
	name R5-35-00-1_reg_1;
	to R5-35-00-1_meter_48;
	configuration feeder_reg_cfg;
};

object recorder {
	interval 60;
	name R5-35-00-1_reg_1recorder5;
	parent R5-35-00-1_reg_1;
	limit 1440;
	file "R5-35.00-1_reg_output.csv";
	property tap_A,tap_B,tap_C,power_in_A.real,power_in_A.imag,power_in_B.real,power_in_B.imag,power_in_C.real,power_in_C.imag,power_in.real,power_in.imag;
};

object regulator_configuration {
	Control OUTPUT_VOLTAGE;
	raise_taps 16;
	name feeder_reg_cfg;
	band_center 20748.0;
	tap_pos_A 0;
	tap_pos_B 0;
	connect_type WYE_WYE;
	time_delay 30;
	regulation 0.10;
	lower_taps 16;
	tap_pos_C 0;
	band_width 332;
};

object fuse {
	status CLOSED;
	phases ABCN;
	from R5-35-00-1_node_279;
	name R5-35-00-1_fuse_1;
	current_limit 75;
	to R5-35-00-1_node_1;
};

object fuse {
	status CLOSED;
	phases ABCN;
	from R5-35-00-1_node_278;
	name R5-35-00-1_fuse_2;
	current_limit 75;
	to R5-35-00-1_node_2;
};

object fuse {
	status CLOSED;
	phases CN;
	from R5-35-00-1_node_25;
	name R5-35-00-1_fuse_3;
	current_limit 50;
	to R5-35-00-1_node_24;
};

object fuse {
	status CLOSED;
	phases CN;
	from R5-35-00-1_node_26;
	name R5-35-00-1_fuse_4;
	current_limit 50;
	to R5-35-00-1_node_30;
};

object fuse {
	status CLOSED;
	phases BN;
	from R5-35-00-1_node_238;
	name R5-35-00-1_fuse_5;
	current_limit 50;
	to R5-35-00-1_node_51;
};

object fuse {
	status CLOSED;
	phases CN;
	from R5-35-00-1_node_242;
	name R5-35-00-1_fuse_6;
	current_limit 50;
	to R5-35-00-1_node_52;
};

object fuse {
	status CLOSED;
	phases AN;
	from R5-35-00-1_node_241;
	name R5-35-00-1_fuse_7;
	current_limit 75;
	to R5-35-00-1_node_57;
};

object fuse {
	status CLOSED;
	phases BN;
	from R5-35-00-1_node_222;
	name R5-35-00-1_fuse_8;
	current_limit 50;
	to R5-35-00-1_node_65;
};

object fuse {
	status CLOSED;
	phases CN;
	from R5-35-00-1_node_221;
	name R5-35-00-1_fuse_9;
	current_limit 75;
	to R5-35-00-1_node_75;
};

object fuse {
	status CLOSED;
	phases CN;
	from R5-35-00-1_node_272;
	name R5-35-00-1_fuse_10;
	current_limit 50;
	to R5-35-00-1_node_91;
};

object fuse {
	status CLOSED;
	phases BN;
	from R5-35-00-1_node_271;
	name R5-35-00-1_fuse_11;
	current_limit 50;
	to R5-35-00-1_node_101;
};

object fuse {
	status CLOSED;
	phases AN;
	from R5-35-00-1_node_273;
	name R5-35-00-1_fuse_12;
	current_limit 50;
	to R5-35-00-1_node_103;
};

object fuse {
	status CLOSED;
	phases AN;
	from R5-35-00-1_node_288;
	name R5-35-00-1_fuse_13;
	current_limit 50;
	to R5-35-00-1_node_110;
};

object fuse {
	status CLOSED;
	phases BN;
	from R5-35-00-1_node_230;
	name R5-35-00-1_fuse_14;
	current_limit 50;
	to R5-35-00-1_node_112;
};

object fuse {
	status CLOSED;
	phases CN;
	from R5-35-00-1_node_227;
	name R5-35-00-1_fuse_15;
	current_limit 50;
	to R5-35-00-1_node_113;
};

object fuse {
	status CLOSED;
	phases AN;
	from R5-35-00-1_node_231;
	name R5-35-00-1_fuse_16;
	current_limit 50;
	to R5-35-00-1_node_114;
};

object fuse {
	status CLOSED;
	phases CN;
	from R5-35-00-1_node_263;
	name R5-35-00-1_fuse_17;
	current_limit 50;
	to R5-35-00-1_node_133;
};

object fuse {
	status CLOSED;
	phases BN;
	from R5-35-00-1_node_264;
	name R5-35-00-1_fuse_18;
	current_limit 50;
	to R5-35-00-1_node_134;
};

object fuse {
	status CLOSED;
	phases AN;
	from R5-35-00-1_node_220;
	name R5-35-00-1_fuse_19;
	current_limit 50;
	to R5-35-00-1_node_143;
};

object fuse {
	status CLOSED;
	phases CN;
	from R5-35-00-1_node_249;
	name R5-35-00-1_fuse_20;
	current_limit 50;
	to R5-35-00-1_node_152;
};

object fuse {
	status CLOSED;
	phases ABCN;
	from R5-35-00-1_node_165;
	name R5-35-00-1_fuse_21;
	current_limit 50;
	to R5-35-00-1_node_166;
};

object fuse {
	status CLOSED;
	phases ABCN;
	from R5-35-00-1_node_197;
	name R5-35-00-1_fuse_22;
	current_limit 500;
	to R5-35-00-1_node_196;
};

object fuse {
	status CLOSED;
	phases ABCN;
	from R5-35-00-1_node_206;
	name R5-35-00-1_fuse_23;
	current_limit 50;
	to R5-35-00-1_node_200;
};

object fuse {
	status CLOSED;
	phases ABCN;
	from R5-35-00-1_node_205;
	name R5-35-00-1_fuse_24;
	current_limit 500;
	to R5-35-00-1_node_204;
};

object fuse {
	status CLOSED;
	phases ABCN;
	from R5-35-00-1_node_214;
	name R5-35-00-1_fuse_25;
	current_limit 500;
	to R5-35-00-1_node_210;
};

object fuse {
	status CLOSED;
	phases ABCN;
	from R5-35-00-1_node_213;
	name R5-35-00-1_fuse_26;
	current_limit 50;
	to R5-35-00-1_node_212;
};

object fuse {
	status CLOSED;
	phases ABCN;
	from R5-35-00-1_node_324;
	name R5-35-00-1_fuse_27;
	current_limit 500;
	to R5-35-00-1_node_214;
};

object fuse {
	status CLOSED;
	phases ABCN;
	from R5-35-00-1_node_247;
	name R5-35-00-1_fuse_28;
	current_limit 50;
	to R5-35-00-1_node_245;
};

object fuse {
	status CLOSED;
	phases AN;
	from R5-35-00-1_node_265;
	name R5-35-00-1_fuse_29;
	current_limit 50;
	to R5-35-00-1_node_255;
};

object fuse {
	status CLOSED;
	phases ABCN;
	from R5-35-00-1_node_262;
	name R5-35-00-1_fuse_30;
	current_limit 50;
	to R5-35-00-1_node_256;
};

object fuse {
	status CLOSED;
	phases CN;
	from R5-35-00-1_node_292;
	name R5-35-00-1_fuse_31;
	current_limit 50;
	to R5-35-00-1_node_283;
};

object fuse {
	status CLOSED;
	phases BN;
	from R5-35-00-1_node_291;
	name R5-35-00-1_fuse_32;
	current_limit 50;
	to R5-35-00-1_node_295;
};

object fuse {
	status CLOSED;
	phases CN;
	from R5-35-00-1_node_314;
	name R5-35-00-1_fuse_33;
	current_limit 75;
	to R5-35-00-1_node_301;
};

object fuse {
	status CLOSED;
	phases AN;
	from R5-35-00-1_node_315;
	name R5-35-00-1_fuse_34;
	current_limit 500;
	to R5-35-00-1_node_302;
};

object fuse {
	status CLOSED;
	phases BN;
	from R5-35-00-1_node_316;
	name R5-35-00-1_fuse_35;
	current_limit 50;
	to R5-35-00-1_node_307;
};

object fuse {
	status CLOSED;
	phases ABCN;
	from R5-35-00-1_node_322;
	name R5-35-00-1_fuse_36;
	current_limit 50;
	to R5-35-00-1_node_325;
};

object line_configuration {
	name line_configuration_13;
	spacing line_spacing_7;
	conductor_N underground_line_conductor_2;
	conductor_A underground_line_conductor_2;
	conductor_C underground_line_conductor_2;
	conductor_B underground_line_conductor_2;
};

object line_configuration {
	name line_configuration_14;
	spacing line_spacing_7;
	conductor_N underground_line_conductor_3;
	conductor_A underground_line_conductor_3;
	conductor_C underground_line_conductor_3;
	conductor_B underground_line_conductor_3;
};

object line_configuration {
	conductor_N underground_line_conductor_4;
	spacing line_spacing_8;
	conductor_A underground_line_conductor_4;
	name line_configuration_15;
};

object line_configuration {
	conductor_N underground_line_conductor_5;
	spacing line_spacing_8;
	conductor_A underground_line_conductor_5;
	name line_configuration_16;
};

object line_configuration {
	name line_configuration_17;
	spacing line_spacing_9;
	conductor_N overhead_line_conductor_6;
	conductor_A overhead_line_conductor_6;
	conductor_C overhead_line_conductor_6;
	conductor_B overhead_line_conductor_6;
};

object line_configuration {
	conductor_N underground_line_conductor_5;
	spacing line_spacing_10;
	name line_configuration_18;
	conductor_B underground_line_conductor_5;
};

object line_configuration {
	conductor_N underground_line_conductor_3;
	spacing line_spacing_8;
	conductor_A underground_line_conductor_3;
	name line_configuration_19;
};

object line_configuration {
	name line_configuration_20;
	spacing line_spacing_7;
	conductor_N underground_line_conductor_5;
	conductor_A underground_line_conductor_5;
	conductor_C underground_line_conductor_5;
	conductor_B underground_line_conductor_5;
};

object line_configuration {
	conductor_N underground_line_conductor_3;
	spacing line_spacing_11;
	name line_configuration_21;
	conductor_C underground_line_conductor_3;
};

object line_configuration {
	conductor_N underground_line_conductor_2;
	spacing line_spacing_11;
	name line_configuration_22;
	conductor_C underground_line_conductor_2;
};

object line_configuration {
	conductor_N underground_line_conductor_5;
	spacing line_spacing_11;
	name line_configuration_23;
	conductor_C underground_line_conductor_5;
};

object line_configuration {
	conductor_N underground_line_conductor_2;
	spacing line_spacing_10;
	name line_configuration_24;
	conductor_B underground_line_conductor_2;
};

object line_configuration {
	conductor_N underground_line_conductor_3;
	spacing line_spacing_10;
	name line_configuration_25;
	conductor_B underground_line_conductor_3;
};

object line_configuration {
	conductor_N underground_line_conductor_2;
	spacing line_spacing_8;
	conductor_A underground_line_conductor_2;
	name line_configuration_26;
};

object line_configuration {
	name line_configuration_27;
	spacing line_spacing_12;
	conductor_N overhead_line_conductor_6;
	conductor_A overhead_line_conductor_6;
	conductor_C overhead_line_conductor_6;
	conductor_B overhead_line_conductor_6;
};

object line_spacing {
	distance_BC 12.0 in;
	name line_spacing_7;
	distance_CN 360.0 in;
	distance_AN 360.0 in;
	distance_AB 12.0 in;
	distance_BN 360.0 in;
	distance_AC 12.0 in;
};

object line_spacing {
	distance_AN 360.0 in;
	name line_spacing_8;
};

object line_spacing {
	distance_BC 65.90000000004 in;
	name line_spacing_9;
	distance_CN 85.59999999996 in;
	distance_AN 85.59999999996 in;
	distance_AB 65.90000000004 in;
	distance_BN 85.59999999996 in;
	distance_AC 65.90000000004 in;
};

object line_spacing {
	name line_spacing_10;
	distance_BN 360.0 in;
};

object line_spacing {
	distance_CN 360.0 in;
	name line_spacing_11;
};

object line_spacing {
	distance_BC 60.50000000004 in;
	name line_spacing_12;
	distance_CN 84.6 in;
	distance_AN 84.6 in;
	distance_AB 60.50000000004 in;
	distance_BN 84.6 in;
	distance_AC 60.50000000004 in;
};

object load {
	phases ABCN;
	load_class C;
	name R5-35-00-1_load_1;
	parent R5-35-00-1_meter_1;
	voltage_B -9959.29-17250j;
	voltage_C -9959.29+17250j;
	voltage_A 19918.58+0.0j;
	constant_power_C 108400+29900j;
	constant_power_B 108400+29900j;
	constant_power_A 108400+29900j;
	nominal_voltage 19918.58;
};

object load {
	phases ABCN;
	load_class C;
	name R5-35-00-1_load_2;
	parent R5-35-00-1_meter_2;
	voltage_B -9959.29-17250j;
	voltage_C -9959.29+17250j;
	voltage_A 19918.58+0.0j;
	constant_power_C 5300+3300j;
	constant_power_B 5300+3300j;
	constant_power_A 5300+3300j;
	nominal_voltage 19918.58;
};

object load {
	phases ABCN;
	load_class C;
	name R5-35-00-1_load_3;
	parent R5-35-00-1_meter_3;
	voltage_B -9959.29-17250j;
	voltage_C -9959.29+17250j;
	voltage_A 19918.58+0.0j;
	constant_power_C 14900+9300j;
	constant_power_B 14900+9300j;
	constant_power_A 14900+9300j;
	nominal_voltage 19918.58;
};

object load {
	phases ABCN;
	load_class C;
	name R5-35-00-1_load_4;
	parent R5-35-00-1_meter_4;
	voltage_B -9959.29-17250j;
	voltage_C -9959.29+17250j;
	voltage_A 19918.58+0.0j;
	constant_power_C 126900+78700j;
	constant_power_B 126900+78700j;
	constant_power_A 126900+78700j;
	nominal_voltage 19918.58;
};

object load {
	phases ABCN;
	load_class C;
	name R5-35-00-1_load_5;
	parent R5-35-00-1_meter_5;
	voltage_B -9959.29-17250j;
	voltage_C -9959.29+17250j;
	voltage_A 19918.58+0.0j;
	constant_power_C 33300+16650j;
	constant_power_B 33300+16650j;
	constant_power_A 33300+16650j;
	nominal_voltage 19918.58;
};

object load {
	phases ABCN;
	load_class C;
	name R5-35-00-1_load_6;
	parent R5-35-00-1_meter_6;
	voltage_B -9959.29-17250j;
	voltage_C -9959.29+17250j;
	voltage_A 19918.58+0.0j;
	constant_power_C 14700+9100j;
	constant_power_B 14700+9100j;
	constant_power_A 14700+9100j;
	nominal_voltage 19918.58;
};

object load {
	phases ABCN;
	load_class C;
	name R5-35-00-1_load_7;
	parent R5-35-00-1_meter_7;
	voltage_B -9959.29-17250j;
	voltage_C -9959.29+17250j;
	voltage_A 19918.58+0.0j;
	constant_power_C 30300+18800j;
	constant_power_B 30300+18800j;
	constant_power_A 30300+18800j;
	nominal_voltage 19918.58;
};

object load {
	phases ABCN;
	load_class C;
	name R5-35-00-1_load_8;
	parent R5-35-00-1_meter_8;
	voltage_B -9959.29-17250j;
	voltage_C -9959.29+17250j;
	voltage_A 19918.58+0.0j;
	constant_power_C 5586+3528j;
	constant_power_B 5586+3528j;
	constant_power_A 5586+3528j;
	nominal_voltage 19918.58;
};

object load {
	phases CN;
	load_class C;
	name R5-35-00-1_load_9;
	parent R5-35-00-1_meter_9;
	voltage_C -9959.29+17250j;
	constant_power_C 19980+9990j;
	nominal_voltage 19918.58;
};

object load {
	phases CN;
	load_class C;
	name R5-35-00-1_load_10;
	parent R5-35-00-1_meter_10;
	voltage_C -9959.29+17250j;
	constant_power_C 13320+6660j;
	nominal_voltage 19918.58;
};

object load {
	phases CN;
	load_class C;
	name R5-35-00-1_load_11;
	parent R5-35-00-1_meter_11;
	voltage_C -9959.29+17250j;
	constant_power_C 200+100j;
	nominal_voltage 19918.58;
};

object load {
	phases CN;
	load_class C;
	name R5-35-00-1_load_12;
	parent R5-35-00-1_meter_12;
	voltage_C -9959.29+17250j;
	constant_power_C 200+100j;
	nominal_voltage 19918.58;
};

object load {
	phases CN;
	load_class C;
	name R5-35-00-1_load_13;
	parent R5-35-00-1_meter_13;
	voltage_C -9959.29+17250j;
	constant_power_C 45+27j;
	nominal_voltage 19918.58;
};

object load {
	phases CN;
	load_class C;
	name R5-35-00-1_load_14;
	parent R5-35-00-1_meter_14;
	voltage_C -9959.29+17250j;
	constant_power_C 6660+3330j;
	nominal_voltage 19918.58;
};

object load {
	phases ABCN;
	load_class C;
	name R5-35-00-1_load_15;
	parent R5-35-00-1_meter_15;
	voltage_B -9959.29-17250j;
	voltage_C -9959.29+17250j;
	voltage_A 19918.58+0.0j;
	constant_power_C 98000+60800j;
	constant_power_B 98000+60800j;
	constant_power_A 98000+60800j;
	nominal_voltage 19918.58;
};

object load {
	phases ABCN;
	load_class C;
	name R5-35-00-1_load_16;
	parent R5-35-00-1_meter_16;
	voltage_B -9959.29-17250j;
	voltage_C -9959.29+17250j;
	voltage_A 19918.58+0.0j;
	constant_power_C 6800+4200j;
	constant_power_B 6800+4200j;
	constant_power_A 6800+4200j;
	nominal_voltage 19918.58;
};

object load {
	phases AN;
	load_class C;
	name R5-35-00-1_load_17;
	parent R5-35-00-1_meter_17;
	voltage_A 19918.58+0.0j;
	nominal_voltage 19918.58;
	constant_power_A 1220+648j;
};

object load {
	phases ABCN;
	load_class C;
	name R5-35-00-1_load_18;
	parent R5-35-00-1_meter_18;
	voltage_B -9959.29-17250j;
	voltage_C -9959.29+17250j;
	voltage_A 19918.58+0.0j;
	constant_power_C 22200+13800j;
	constant_power_B 22200+13800j;
	constant_power_A 22200+13800j;
	nominal_voltage 19918.58;
};

object load {
	phases CN;
	load_class C;
	name R5-35-00-1_load_19;
	parent R5-35-00-1_meter_19;
	voltage_C -9959.29+17250j;
	constant_power_C 1055+598j;
	nominal_voltage 19918.58;
};

object load {
	phases AN;
	load_class C;
	name R5-35-00-1_load_20;
	parent R5-35-00-1_meter_20;
	voltage_A 19918.58+0.0j;
	nominal_voltage 19918.58;
	constant_power_A 1006+570j;
};

object load {
	phases AN;
	load_class C;
	name R5-35-00-1_load_21;
	parent R5-35-00-1_meter_21;
	voltage_A 19918.58+0.0j;
	nominal_voltage 19918.58;
	constant_power_A 1056+598j;
};

object load {
	phases CN;
	load_class C;
	name R5-35-00-1_load_22;
	parent R5-35-00-1_meter_22;
	voltage_C -9959.29+17250j;
	constant_power_C 21708+13065j;
	nominal_voltage 19918.58;
};

object load {
	phases AN;
	load_class C;
	name R5-35-00-1_load_23;
	parent R5-35-00-1_meter_23;
	voltage_A 19918.58+0.0j;
	nominal_voltage 19918.58;
	constant_power_A 79920+39960j;
};

object load {
	phases AN;
	load_class C;
	name R5-35-00-1_load_24;
	parent R5-35-00-1_meter_24;
	voltage_A 19918.58+0.0j;
	nominal_voltage 19918.58;
	constant_power_A 283+161j;
};

object load {
	phases AN;
	load_class C;
	name R5-35-00-1_load_25;
	parent R5-35-00-1_meter_25;
	voltage_A 19918.58+0.0j;
	nominal_voltage 19918.58;
	constant_power_A 900+600j;
};

object load {
	phases AN;
	load_class C;
	name R5-35-00-1_load_26;
	parent R5-35-00-1_meter_26;
	voltage_A 19918.58+0.0j;
	nominal_voltage 19918.58;
	constant_power_A 5500+3400j;
};

object load {
	phases ABCN;
	load_class C;
	name R5-35-00-1_load_27;
	parent R5-35-00-1_meter_27;
	voltage_B -9959.29-17250j;
	voltage_C -9959.29+17250j;
	voltage_A 19918.58+0.0j;
	constant_power_C 280100+195400j;
	constant_power_B 280100+195400j;
	constant_power_A 280100+195400j;
	nominal_voltage 19918.58;
};

object load {
	phases ABCN;
	load_class C;
	name R5-35-00-1_load_28;
	parent R5-35-00-1_meter_28;
	voltage_B -9959.29-17250j;
	voltage_C -9959.29+17250j;
	voltage_A 19918.58+0.0j;
	constant_power_C 13320+6660j;
	constant_power_B 13320+6660j;
	constant_power_A 13320+6660j;
	nominal_voltage 19918.58;
};

object load {
	phases ABCN;
	load_class C;
	name R5-35-00-1_load_29;
	parent R5-35-00-1_meter_29;
	voltage_B -9959.29-17250j;
	voltage_C -9959.29+17250j;
	voltage_A 19918.58+0.0j;
	constant_power_C 35400+21900j;
	constant_power_B 35400+21900j;
	constant_power_A 35400+21900j;
	nominal_voltage 19918.58;
};

object load {
	phases CN;
	load_class C;
	name R5-35-00-1_load_30;
	parent R5-35-00-1_meter_30;
	voltage_C -9959.29+17250j;
	constant_power_C 3069+1760j;
	nominal_voltage 19918.58;
};

object load {
	phases CN;
	load_class C;
	name R5-35-00-1_load_31;
	parent R5-35-00-1_meter_31;
	voltage_C -9959.29+17250j;
	constant_power_C 1704+836j;
	nominal_voltage 19918.58;
};

object load {
	phases BN;
	load_class C;
	name R5-35-00-1_load_32;
	parent R5-35-00-1_meter_32;
	voltage_B -9959.29-17250j;
	nominal_voltage 19918.58;
	constant_power_B 1176+669j;
};

object load {
	phases BN;
	load_class C;
	name R5-35-00-1_load_33;
	parent R5-35-00-1_meter_33;
	voltage_B -9959.29-17250j;
	nominal_voltage 19918.58;
	constant_power_B 413+201j;
};

object load {
	phases AN;
	load_class C;
	name R5-35-00-1_load_34;
	parent R5-35-00-1_meter_34;
	voltage_A 19918.58+0.0j;
	nominal_voltage 19918.58;
	constant_power_A 4000+2500j;
};

object load {
	phases BN;
	load_class C;
	name R5-35-00-1_load_35;
	parent R5-35-00-1_meter_35;
	voltage_B -9959.29-17250j;
	nominal_voltage 19918.58;
	constant_power_B 26640+13320j;
};

object load {
	phases CN;
	load_class C;
	name R5-35-00-1_load_36;
	parent R5-35-00-1_meter_36;
	voltage_C -9959.29+17250j;
	constant_power_C 402+228j;
	nominal_voltage 19918.58;
};

object load {
	phases CN;
	load_class C;
	name R5-35-00-1_load_37;
	parent R5-35-00-1_meter_37;
	voltage_C -9959.29+17250j;
	constant_power_C 7630+4480j;
	nominal_voltage 19918.58;
};

object load {
	phases AN;
	load_class C;
	name R5-35-00-1_load_38;
	parent R5-35-00-1_meter_38;
	voltage_A 19918.58+0.0j;
	nominal_voltage 19918.58;
	constant_power_A 40000+20000j;
};

object load {
	phases AN;
	load_class C;
	name R5-35-00-1_load_39;
	parent R5-35-00-1_meter_39;
	voltage_A 19918.58+0.0j;
	nominal_voltage 19918.58;
	constant_power_A 2500+1500j;
};

object load {
	phases ABCN;
	load_class C;
	name R5-35-00-1_load_40;
	parent R5-35-00-1_meter_40;
	voltage_B -9959.29-17250j;
	voltage_C -9959.29+17250j;
	voltage_A 19918.58+0.0j;
	constant_power_C 18700+11600j;
	constant_power_B 18700+11600j;
	constant_power_A 18700+11600j;
	nominal_voltage 19918.58;
};

object load {
	phases ABCN;
	load_class C;
	name R5-35-00-1_load_41;
	parent R5-35-00-1_meter_41;
	voltage_B -9959.29-17250j;
	voltage_C -9959.29+17250j;
	voltage_A 19918.58+0.0j;
	constant_power_C 10800+6700j;
	constant_power_B 10800+6700j;
	constant_power_A 10800+6700j;
	nominal_voltage 19918.58;
};

object load {
	phases ABCN;
	load_class C;
	name R5-35-00-1_load_42;
	parent R5-35-00-1_meter_42;
	voltage_B -9959.29-17250j;
	voltage_C -9959.29+17250j;
	voltage_A 19918.58+0.0j;
	constant_power_C 23700+14700j;
	constant_power_B 23700+14700j;
	constant_power_A 23700+14700j;
	nominal_voltage 19918.58;
};

object load {
	phases CN;
	load_class C;
	name R5-35-00-1_load_43;
	parent R5-35-00-1_meter_43;
	voltage_C -9959.29+17250j;
	constant_power_C 97500+60400j;
	nominal_voltage 19918.58;
};

object load {
	phases CN;
	load_class C;
	name R5-35-00-1_load_44;
	parent R5-35-00-1_meter_44;
	voltage_C -9959.29+17250j;
	constant_power_C 66500+41200j;
	nominal_voltage 19918.58;
};

object load {
	phases CN;
	load_class C;
	name R5-35-00-1_load_45;
	parent R5-35-00-1_meter_45;
	voltage_C -9959.29+17250j;
	constant_power_C 6381+3606j;
	nominal_voltage 19918.58;
};

object load {
	phases CN;
	load_class C;
	name R5-35-00-1_load_46;
	parent R5-35-00-1_meter_46;
	voltage_C -9959.29+17250j;
	constant_power_C 910+518j;
	nominal_voltage 19918.58;
};

object load {
	phases CN;
	load_class C;
	name R5-35-00-1_load_47;
	parent R5-35-00-1_meter_47;
	voltage_C -9959.29+17250j;
	constant_power_C 1545+879j;
	nominal_voltage 19918.58;
};

object meter {
	phases ABCN;
	name R5-35-00-1_meter_1;
	voltage_B -9959.29-17250j;
	voltage_C -9959.29+17250j;
	voltage_A 19918.58+0.0j;
	nominal_voltage 19918.58;
};

object meter {
	phases ABCN;
	name R5-35-00-1_meter_2;
	voltage_B -9959.29-17250j;
	voltage_C -9959.29+17250j;
	voltage_A 19918.58+0.0j;
	nominal_voltage 19918.58;
};

object meter {
	phases ABCN;
	name R5-35-00-1_meter_3;
	voltage_B -9959.29-17250j;
	voltage_C -9959.29+17250j;
	voltage_A 19918.58+0.0j;
	nominal_voltage 19918.58;
};

object meter {
	phases ABCN;
	name R5-35-00-1_meter_4;
	voltage_B -9959.29-17250j;
	voltage_C -9959.29+17250j;
	voltage_A 19918.58+0.0j;
	nominal_voltage 19918.58;
};

object meter {
	phases ABCN;
	name R5-35-00-1_meter_5;
	voltage_B -9959.29-17250j;
	voltage_C -9959.29+17250j;
	voltage_A 19918.58+0.0j;
	nominal_voltage 19918.58;
};

object meter {
	phases ABCN;
	name R5-35-00-1_meter_6;
	voltage_B -9959.29-17250j;
	voltage_C -9959.29+17250j;
	voltage_A 19918.58+0.0j;
	nominal_voltage 19918.58;
};

object meter {
	phases ABCN;
	name R5-35-00-1_meter_7;
	voltage_B -9959.29-17250j;
	voltage_C -9959.29+17250j;
	voltage_A 19918.58+0.0j;
	nominal_voltage 19918.58;
};

object meter {
	phases ABCN;
	name R5-35-00-1_meter_8;
	voltage_B -9959.29-17250j;
	voltage_C -9959.29+17250j;
	voltage_A 19918.58+0.0j;
	nominal_voltage 19918.58;
};

object meter {
	voltage_C -9959.29+17250j;
	phases CN;
	nominal_voltage 19918.58;
	name R5-35-00-1_meter_9;
};

object meter {
	voltage_C -9959.29+17250j;
	phases CN;
	nominal_voltage 19918.58;
	name R5-35-00-1_meter_10;
};

object meter {
	voltage_C -9959.29+17250j;
	phases CN;
	nominal_voltage 19918.58;
	name R5-35-00-1_meter_11;
};

object meter {
	voltage_C -9959.29+17250j;
	phases CN;
	nominal_voltage 19918.58;
	name R5-35-00-1_meter_12;
};

object meter {
	voltage_C -9959.29+17250j;
	phases CN;
	nominal_voltage 19918.58;
	name R5-35-00-1_meter_13;
};

object meter {
	voltage_C -9959.29+17250j;
	phases CN;
	nominal_voltage 19918.58;
	name R5-35-00-1_meter_14;
};

object meter {
	phases ABCN;
	name R5-35-00-1_meter_15;
	voltage_B -9959.29-17250j;
	voltage_C -9959.29+17250j;
	voltage_A 19918.58+0.0j;
	nominal_voltage 19918.58;
};

object meter {
	phases ABCN;
	name R5-35-00-1_meter_16;
	voltage_B -9959.29-17250j;
	voltage_C -9959.29+17250j;
	voltage_A 19918.58+0.0j;
	nominal_voltage 19918.58;
};

object meter {
	phases AN;
	nominal_voltage 19918.58;
	name R5-35-00-1_meter_17;
	voltage_A 19918.58+0.0j;
};

object meter {
	phases ABCN;
	name R5-35-00-1_meter_18;
	voltage_B -9959.29-17250j;
	voltage_C -9959.29+17250j;
	voltage_A 19918.58+0.0j;
	nominal_voltage 19918.58;
};

object meter {
	voltage_C -9959.29+17250j;
	phases CN;
	nominal_voltage 19918.58;
	name R5-35-00-1_meter_19;
};

object meter {
	phases AN;
	nominal_voltage 19918.58;
	name R5-35-00-1_meter_20;
	voltage_A 19918.58+0.0j;
};

object meter {
	phases AN;
	nominal_voltage 19918.58;
	name R5-35-00-1_meter_21;
	voltage_A 19918.58+0.0j;
};

object meter {
	voltage_C -9959.29+17250j;
	phases CN;
	nominal_voltage 19918.58;
	name R5-35-00-1_meter_22;
};

object meter {
	phases AN;
	nominal_voltage 19918.58;
	name R5-35-00-1_meter_23;
	voltage_A 19918.58+0.0j;
};

object meter {
	phases AN;
	nominal_voltage 19918.58;
	name R5-35-00-1_meter_24;
	voltage_A 19918.58+0.0j;
};

object meter {
	phases AN;
	nominal_voltage 19918.58;
	name R5-35-00-1_meter_25;
	voltage_A 19918.58+0.0j;
};

object meter {
	phases AN;
	nominal_voltage 19918.58;
	name R5-35-00-1_meter_26;
	voltage_A 19918.58+0.0j;
};

object meter {
	phases ABCN;
	name R5-35-00-1_meter_27;
	voltage_B -9959.29-17250j;
	voltage_C -9959.29+17250j;
	voltage_A 19918.58+0.0j;
	nominal_voltage 19918.58;
};

object meter {
	phases ABCN;
	name R5-35-00-1_meter_28;
	voltage_B -9959.29-17250j;
	voltage_C -9959.29+17250j;
	voltage_A 19918.58+0.0j;
	nominal_voltage 19918.58;
};

object meter {
	phases ABCN;
	name R5-35-00-1_meter_29;
	voltage_B -9959.29-17250j;
	voltage_C -9959.29+17250j;
	voltage_A 19918.58+0.0j;
	nominal_voltage 19918.58;
};

object meter {
	voltage_C -9959.29+17250j;
	phases CN;
	nominal_voltage 19918.58;
	name R5-35-00-1_meter_30;
};

object meter {
	voltage_C -9959.29+17250j;
	phases CN;
	nominal_voltage 19918.58;
	name R5-35-00-1_meter_31;
};

object meter {
	voltage_B -9959.29-17250j;
	phases BN;
	nominal_voltage 19918.58;
	name R5-35-00-1_meter_32;
};

object meter {
	voltage_B -9959.29-17250j;
	phases BN;
	nominal_voltage 19918.58;
	name R5-35-00-1_meter_33;
};

object meter {
	phases AN;
	nominal_voltage 19918.58;
	name R5-35-00-1_meter_34;
	voltage_A 19918.58+0.0j;
};

object meter {
	voltage_B -9959.29-17250j;
	phases BN;
	nominal_voltage 19918.58;
	name R5-35-00-1_meter_35;
};

object meter {
	voltage_C -9959.29+17250j;
	phases CN;
	nominal_voltage 19918.58;
	name R5-35-00-1_meter_36;
};

object meter {
	phases CN;
	name R5-35-00-1_meter_37;
	voltage_C -9959.29+17250j;
	nominal_voltage 19918.58;
};

object meter {
	phases AN;
	nominal_voltage 19918.58;
	name R5-35-00-1_meter_38;
	voltage_A 19918.58+0.0j;
};

object meter {
	phases AN;
	nominal_voltage 19918.58;
	name R5-35-00-1_meter_39;
	voltage_A 19918.58+0.0j;
};

object meter {
	phases ABCN;
	name R5-35-00-1_meter_40;
	voltage_B -9959.29-17250j;
	voltage_C -9959.29+17250j;
	voltage_A 19918.58+0.0j;
	nominal_voltage 19918.58;
};

object meter {
	phases ABCN;
	name R5-35-00-1_meter_41;
	voltage_B -9959.29-17250j;
	voltage_C -9959.29+17250j;
	voltage_A 19918.58+0.0j;
	nominal_voltage 19918.58;
};

object meter {
	phases ABCN;
	name R5-35-00-1_meter_42;
	voltage_B -9959.29-17250j;
	voltage_C -9959.29+17250j;
	voltage_A 19918.58+0.0j;
	nominal_voltage 19918.58;
};

object meter {
	voltage_C -9959.29+17250j;
	phases CN;
	nominal_voltage 19918.58;
	name R5-35-00-1_meter_43;
};

object meter {
	voltage_C -9959.29+17250j;
	phases CN;
	nominal_voltage 19918.58;
	name R5-35-00-1_meter_44;
};

object meter {
	voltage_C -9959.29+17250j;
	phases CN;
	nominal_voltage 19918.58;
	name R5-35-00-1_meter_45;
};

object meter {
	voltage_C -9959.29+17250j;
	phases CN;
	nominal_voltage 19918.58;
	name R5-35-00-1_meter_46;
};

object meter {
	voltage_C -9959.29+17250j;
	phases CN;
	nominal_voltage 19918.58;
	name R5-35-00-1_meter_47;
};

object meter {
	phases ABCN;
	name R5-35-00-1_meter_48;
	voltage_B -9959.29-17250j;
	voltage_C -9959.29+17250j;
	voltage_A 19918.58+0.0j;
	nominal_voltage 19918.58;
};

object node {
	phases ABCN;
	name R5-35-00-1_node_1;
	voltage_B -9959.29-17250j;
	voltage_C -9959.29+17250j;
	voltage_A 19918.58+0.0j;
	nominal_voltage 19918.58;
};

object node {
	phases ABCN;
	name R5-35-00-1_node_2;
	voltage_B -9959.29-17250j;
	voltage_C -9959.29+17250j;
	voltage_A 19918.58+0.0j;
	nominal_voltage 19918.58;
};

object node {
	phases ABCN;
	name R5-35-00-1_node_3;
	voltage_B -9959.29-17250j;
	voltage_C -9959.29+17250j;
	voltage_A 19918.58+0.0j;
	nominal_voltage 19918.58;
};

object node {
	phases AN;
	nominal_voltage 19918.58;
	name R5-35-00-1_node_4;
	voltage_A 19918.58+0.0j;
};

object node {
	phases AN;
	nominal_voltage 19918.58;
	name R5-35-00-1_node_5;
	voltage_A 19918.58+0.0j;
};

object node {
	phases AN;
	nominal_voltage 19918.58;
	name R5-35-00-1_node_6;
	voltage_A 19918.58+0.0j;
};

object node {
	phases AN;
	nominal_voltage 19918.58;
	name R5-35-00-1_node_7;
	voltage_A 19918.58+0.0j;
};

object node {
	phases ABCN;
	name R5-35-00-1_node_8;
	voltage_B -9959.29-17250j;
	voltage_C -9959.29+17250j;
	voltage_A 19918.58+0.0j;
	nominal_voltage 19918.58;
};

object node {
	phases ABCN;
	name R5-35-00-1_node_9;
	voltage_B -9959.29-17250j;
	voltage_C -9959.29+17250j;
	voltage_A 19918.58+0.0j;
	nominal_voltage 19918.58;
};

object node {
	phases ABCN;
	name R5-35-00-1_node_10;
	voltage_B -9959.29-17250j;
	voltage_C -9959.29+17250j;
	voltage_A 19918.58+0.0j;
	nominal_voltage 19918.58;
};

object node {
	phases ABCN;
	name R5-35-00-1_node_11;
	voltage_B -9959.29-17250j;
	voltage_C -9959.29+17250j;
	voltage_A 19918.58+0.0j;
	nominal_voltage 19918.58;
};

object node {
	phases AN;
	nominal_voltage 19918.58;
	name R5-35-00-1_node_12;
	voltage_A 19918.58+0.0j;
};

object node {
	voltage_B -9959.29-17250j;
	phases BN;
	nominal_voltage 19918.58;
	name R5-35-00-1_node_13;
};

object node {
	phases AN;
	nominal_voltage 19918.58;
	name R5-35-00-1_node_14;
	voltage_A 19918.58+0.0j;
};

object node {
	phases AN;
	nominal_voltage 19918.58;
	name R5-35-00-1_node_15;
	voltage_A 19918.58+0.0j;
};

object node {
	voltage_B -9959.29-17250j;
	phases BN;
	nominal_voltage 19918.58;
	name R5-35-00-1_node_16;
};

object node {
	phases ABCN;
	name R5-35-00-1_node_17;
	voltage_B -9959.29-17250j;
	voltage_C -9959.29+17250j;
	voltage_A 19918.58+0.0j;
	nominal_voltage 19918.58;
};

object node {
	phases AN;
	nominal_voltage 19918.58;
	name R5-35-00-1_node_18;
	voltage_A 19918.58+0.0j;
};

object node {
	phases ABCN;
	name R5-35-00-1_node_19;
	voltage_B -9959.29-17250j;
	voltage_C -9959.29+17250j;
	voltage_A 19918.58+0.0j;
	nominal_voltage 19918.58;
};

object node {
	phases ABCN;
	name R5-35-00-1_node_20;
	voltage_B -9959.29-17250j;
	voltage_C -9959.29+17250j;
	voltage_A 19918.58+0.0j;
	nominal_voltage 19918.58;
};

object node {
	phases ABCN;
	name R5-35-00-1_node_21;
	voltage_B -9959.29-17250j;
	voltage_C -9959.29+17250j;
	voltage_A 19918.58+0.0j;
	nominal_voltage 19918.58;
};

object node {
	phases ABCN;
	name R5-35-00-1_node_22;
	voltage_B -9959.29-17250j;
	voltage_C -9959.29+17250j;
	voltage_A 19918.58+0.0j;
	nominal_voltage 19918.58;
};

object node {
	voltage_C -9959.29+17250j;
	phases CN;
	nominal_voltage 19918.58;
	name R5-35-00-1_node_23;
};

object node {
	phases CN;
	name R5-35-00-1_node_24;
	voltage_C -9959.29+17250j;
	nominal_voltage 19918.58;
};

object node {
	voltage_C -9959.29+17250j;
	phases CN;
	nominal_voltage 19918.58;
	name R5-35-00-1_node_25;
};

object node {
	voltage_C -9959.29+17250j;
	phases CN;
	nominal_voltage 19918.58;
	name R5-35-00-1_node_26;
};

object node {
	voltage_C -9959.29+17250j;
	phases CN;
	nominal_voltage 19918.58;
	name R5-35-00-1_node_27;
};

object node {
	voltage_C -9959.29+17250j;
	phases CN;
	nominal_voltage 19918.58;
	name R5-35-00-1_node_28;
};

object node {
	voltage_C -9959.29+17250j;
	phases CN;
	nominal_voltage 19918.58;
	name R5-35-00-1_node_29;
};

object node {
	voltage_C -9959.29+17250j;
	phases CN;
	nominal_voltage 19918.58;
	name R5-35-00-1_node_30;
};

object node {
	phases ABCN;
	name R5-35-00-1_node_31;
	voltage_B -9959.29-17250j;
	voltage_C -9959.29+17250j;
	voltage_A 19918.58+0.0j;
	nominal_voltage 19918.58;
};

object node {
	voltage_C -9959.29+17250j;
	phases CN;
	nominal_voltage 19918.58;
	name R5-35-00-1_node_32;
};

object node {
	voltage_C -9959.29+17250j;
	phases CN;
	nominal_voltage 19918.58;
	name R5-35-00-1_node_33;
};

object node {
	voltage_C -9959.29+17250j;
	phases CN;
	nominal_voltage 19918.58;
	name R5-35-00-1_node_34;
};

object node {
	phases AN;
	nominal_voltage 19918.58;
	name R5-35-00-1_node_35;
	voltage_A 19918.58+0.0j;
};

object node {
	phases AN;
	nominal_voltage 19918.58;
	name R5-35-00-1_node_36;
	voltage_A 19918.58+0.0j;
};

object node {
	phases AN;
	nominal_voltage 19918.58;
	name R5-35-00-1_node_37;
	voltage_A 19918.58+0.0j;
};

object node {
	phases ABCN;
	name R5-35-00-1_node_38;
	voltage_B -9959.29-17250j;
	voltage_C -9959.29+17250j;
	voltage_A 19918.58+0.0j;
	nominal_voltage 19918.58;
};

object node {
	phases AN;
	nominal_voltage 19918.58;
	name R5-35-00-1_node_39;
	voltage_A 19918.58+0.0j;
};

object node {
	voltage_B -9959.29-17250j;
	phases BN;
	nominal_voltage 19918.58;
	name R5-35-00-1_node_40;
};

object node {
	phases AN;
	nominal_voltage 19918.58;
	name R5-35-00-1_node_41;
	voltage_A 19918.58+0.0j;
};

object node {
	voltage_C -9959.29+17250j;
	phases CN;
	nominal_voltage 19918.58;
	name R5-35-00-1_node_42;
};

object node {
	voltage_C -9959.29+17250j;
	phases CN;
	nominal_voltage 19918.58;
	name R5-35-00-1_node_43;
};

object node {
	voltage_C -9959.29+17250j;
	phases CN;
	nominal_voltage 19918.58;
	name R5-35-00-1_node_44;
};

object node {
	voltage_C -9959.29+17250j;
	phases CN;
	nominal_voltage 19918.58;
	name R5-35-00-1_node_45;
};

object node {
	voltage_C -9959.29+17250j;
	phases CN;
	nominal_voltage 19918.58;
	name R5-35-00-1_node_46;
};

object node {
	voltage_B -9959.29-17250j;
	phases BN;
	nominal_voltage 19918.58;
	name R5-35-00-1_node_47;
};

object node {
	voltage_B -9959.29-17250j;
	phases BN;
	nominal_voltage 19918.58;
	name R5-35-00-1_node_48;
};

object node {
	voltage_B -9959.29-17250j;
	phases BN;
	nominal_voltage 19918.58;
	name R5-35-00-1_node_49;
};

object node {
	voltage_B -9959.29-17250j;
	phases BN;
	nominal_voltage 19918.58;
	name R5-35-00-1_node_50;
};

object node {
	voltage_B -9959.29-17250j;
	phases BN;
	nominal_voltage 19918.58;
	name R5-35-00-1_node_51;
};

object node {
	voltage_C -9959.29+17250j;
	phases CN;
	nominal_voltage 19918.58;
	name R5-35-00-1_node_52;
};

object node {
	phases AN;
	nominal_voltage 19918.58;
	name R5-35-00-1_node_53;
	voltage_A 19918.58+0.0j;
};

object node {
	phases AN;
	nominal_voltage 19918.58;
	name R5-35-00-1_node_54;
	voltage_A 19918.58+0.0j;
};

object node {
	phases AN;
	nominal_voltage 19918.58;
	name R5-35-00-1_node_55;
	voltage_A 19918.58+0.0j;
};

object node {
	phases AN;
	nominal_voltage 19918.58;
	name R5-35-00-1_node_56;
	voltage_A 19918.58+0.0j;
};

object node {
	phases AN;
	nominal_voltage 19918.58;
	name R5-35-00-1_node_57;
	voltage_A 19918.58+0.0j;
};

object node {
	phases AN;
	nominal_voltage 19918.58;
	name R5-35-00-1_node_58;
	voltage_A 19918.58+0.0j;
};

object node {
	phases AN;
	nominal_voltage 19918.58;
	name R5-35-00-1_node_59;
	voltage_A 19918.58+0.0j;
};

object node {
	phases AN;
	nominal_voltage 19918.58;
	name R5-35-00-1_node_60;
	voltage_A 19918.58+0.0j;
};

object node {
	phases AN;
	nominal_voltage 19918.58;
	name R5-35-00-1_node_61;
	voltage_A 19918.58+0.0j;
};

object node {
	phases AN;
	nominal_voltage 19918.58;
	name R5-35-00-1_node_62;
	voltage_A 19918.58+0.0j;
};

object node {
	voltage_C -9959.29+17250j;
	phases CN;
	nominal_voltage 19918.58;
	name R5-35-00-1_node_63;
};

object node {
	phases AN;
	nominal_voltage 19918.58;
	name R5-35-00-1_node_64;
	voltage_A 19918.58+0.0j;
};

object node {
	voltage_B -9959.29-17250j;
	phases BN;
	nominal_voltage 19918.58;
	name R5-35-00-1_node_65;
};

object node {
	phases AN;
	nominal_voltage 19918.58;
	name R5-35-00-1_node_66;
	voltage_A 19918.58+0.0j;
};

object node {
	phases ABCN;
	name R5-35-00-1_node_67;
	voltage_B -9959.29-17250j;
	voltage_C -9959.29+17250j;
	voltage_A 19918.58+0.0j;
	nominal_voltage 19918.58;
};

object node {
	phases ABCN;
	name R5-35-00-1_node_68;
	parent R5-35-00-1_meter_48;
	voltage_B -9959.29-17250j;
	voltage_C -9959.29+17250j;
	voltage_A 19918.58+0.0j;
	nominal_voltage 19918.58;
};

object node {
	voltage_B -9959.29-17250j;
	phases BN;
	nominal_voltage 19918.58;
	name R5-35-00-1_node_69;
};

object node {
	voltage_C -9959.29+17250j;
	phases CN;
	nominal_voltage 19918.58;
	name R5-35-00-1_node_70;
};

object node {
	voltage_B -9959.29-17250j;
	phases BN;
	nominal_voltage 19918.58;
	name R5-35-00-1_node_71;
};

object node {
	voltage_B -9959.29-17250j;
	phases BN;
	nominal_voltage 19918.58;
	name R5-35-00-1_node_72;
};

object node {
	voltage_B -9959.29-17250j;
	phases BN;
	nominal_voltage 19918.58;
	name R5-35-00-1_node_73;
};

object node {
	voltage_B -9959.29-17250j;
	phases BN;
	nominal_voltage 19918.58;
	name R5-35-00-1_node_74;
};

object node {
	voltage_C -9959.29+17250j;
	phases CN;
	nominal_voltage 19918.58;
	name R5-35-00-1_node_75;
};

object node {
	voltage_C -9959.29+17250j;
	phases CN;
	nominal_voltage 19918.58;
	name R5-35-00-1_node_76;
};

object node {
	voltage_C -9959.29+17250j;
	phases CN;
	nominal_voltage 19918.58;
	name R5-35-00-1_node_77;
};

object node {
	voltage_B -9959.29-17250j;
	phases BN;
	nominal_voltage 19918.58;
	name R5-35-00-1_node_78;
};

object node {
	voltage_B -9959.29-17250j;
	phases BN;
	nominal_voltage 19918.58;
	name R5-35-00-1_node_79;
};

object node {
	voltage_C -9959.29+17250j;
	phases CN;
	nominal_voltage 19918.58;
	name R5-35-00-1_node_80;
};

object node {
	voltage_C -9959.29+17250j;
	phases CN;
	nominal_voltage 19918.58;
	name R5-35-00-1_node_81;
};

object node {
	voltage_C -9959.29+17250j;
	phases CN;
	nominal_voltage 19918.58;
	name R5-35-00-1_node_82;
};

object node {
	phases ABCN;
	name R5-35-00-1_node_83;
	voltage_B -9959.29-17250j;
	voltage_C -9959.29+17250j;
	voltage_A 19918.58+0.0j;
	nominal_voltage 19918.58;
};

object node {
	voltage_C -9959.29+17250j;
	phases CN;
	nominal_voltage 19918.58;
	name R5-35-00-1_node_84;
};

object node {
	voltage_C -9959.29+17250j;
	phases CN;
	nominal_voltage 19918.58;
	name R5-35-00-1_node_85;
};

object node {
	voltage_C -9959.29+17250j;
	phases CN;
	nominal_voltage 19918.58;
	name R5-35-00-1_node_86;
};

object node {
	voltage_C -9959.29+17250j;
	phases CN;
	nominal_voltage 19918.58;
	name R5-35-00-1_node_87;
};

object node {
	voltage_C -9959.29+17250j;
	phases CN;
	nominal_voltage 19918.58;
	name R5-35-00-1_node_88;
};

object node {
	voltage_C -9959.29+17250j;
	phases CN;
	nominal_voltage 19918.58;
	name R5-35-00-1_node_89;
};

object node {
	voltage_C -9959.29+17250j;
	phases CN;
	nominal_voltage 19918.58;
	name R5-35-00-1_node_90;
};

object node {
	voltage_C -9959.29+17250j;
	phases CN;
	nominal_voltage 19918.58;
	name R5-35-00-1_node_91;
};

object node {
	voltage_B -9959.29-17250j;
	phases BN;
	nominal_voltage 19918.58;
	name R5-35-00-1_node_92;
};

object node {
	phases BN;
	name R5-35-00-1_node_93;
	voltage_B -9959.29-17250j;
	nominal_voltage 19918.58;
};

object node {
	voltage_B -9959.29-17250j;
	phases BN;
	nominal_voltage 19918.58;
	name R5-35-00-1_node_94;
};

object node {
	voltage_B -9959.29-17250j;
	phases BN;
	nominal_voltage 19918.58;
	name R5-35-00-1_node_95;
};

object node {
	voltage_B -9959.29-17250j;
	phases BN;
	nominal_voltage 19918.58;
	name R5-35-00-1_node_96;
};

object node {
	phases AN;
	nominal_voltage 19918.58;
	name R5-35-00-1_node_97;
	voltage_A 19918.58+0.0j;
};

object node {
	phases AN;
	nominal_voltage 19918.58;
	name R5-35-00-1_node_98;
	voltage_A 19918.58+0.0j;
};

object node {
	phases AN;
	nominal_voltage 19918.58;
	name R5-35-00-1_node_99;
	voltage_A 19918.58+0.0j;
};

object node {
	phases AN;
	nominal_voltage 19918.58;
	name R5-35-00-1_node_100;
	voltage_A 19918.58+0.0j;
};

object node {
	voltage_B -9959.29-17250j;
	phases BN;
	nominal_voltage 19918.58;
	name R5-35-00-1_node_101;
};

object node {
	voltage_B -9959.29-17250j;
	phases BN;
	nominal_voltage 19918.58;
	name R5-35-00-1_node_102;
};

object node {
	phases AN;
	nominal_voltage 19918.58;
	name R5-35-00-1_node_103;
	voltage_A 19918.58+0.0j;
};

object node {
	phases AN;
	nominal_voltage 19918.58;
	name R5-35-00-1_node_104;
	voltage_A 19918.58+0.0j;
};

object node {
	phases AN;
	nominal_voltage 19918.58;
	name R5-35-00-1_node_105;
	voltage_A 19918.58+0.0j;
};

object node {
	voltage_C -9959.29+17250j;
	phases CN;
	nominal_voltage 19918.58;
	name R5-35-00-1_node_106;
};

object node {
	voltage_C -9959.29+17250j;
	phases CN;
	nominal_voltage 19918.58;
	name R5-35-00-1_node_107;
};

object node {
	voltage_C -9959.29+17250j;
	phases CN;
	nominal_voltage 19918.58;
	name R5-35-00-1_node_108;
};

object node {
	phases AN;
	nominal_voltage 19918.58;
	name R5-35-00-1_node_109;
	voltage_A 19918.58+0.0j;
};

object node {
	phases AN;
	nominal_voltage 19918.58;
	name R5-35-00-1_node_110;
	voltage_A 19918.58+0.0j;
};

object node {
	voltage_B -9959.29-17250j;
	phases BN;
	nominal_voltage 19918.58;
	name R5-35-00-1_node_111;
};

object node {
	voltage_B -9959.29-17250j;
	phases BN;
	nominal_voltage 19918.58;
	name R5-35-00-1_node_112;
};

object node {
	voltage_C -9959.29+17250j;
	phases CN;
	nominal_voltage 19918.58;
	name R5-35-00-1_node_113;
};

object node {
	phases AN;
	nominal_voltage 19918.58;
	name R5-35-00-1_node_114;
	voltage_A 19918.58+0.0j;
};

object node {
	phases AN;
	nominal_voltage 19918.58;
	name R5-35-00-1_node_115;
	voltage_A 19918.58+0.0j;
};

object node {
	phases AN;
	nominal_voltage 19918.58;
	name R5-35-00-1_node_116;
	voltage_A 19918.58+0.0j;
};

object node {
	voltage_C -9959.29+17250j;
	phases CN;
	nominal_voltage 19918.58;
	name R5-35-00-1_node_117;
};

object node {
	voltage_C -9959.29+17250j;
	phases CN;
	nominal_voltage 19918.58;
	name R5-35-00-1_node_118;
};

object node {
	voltage_C -9959.29+17250j;
	phases CN;
	nominal_voltage 19918.58;
	name R5-35-00-1_node_119;
};

object node {
	voltage_B -9959.29-17250j;
	phases BN;
	nominal_voltage 19918.58;
	name R5-35-00-1_node_120;
};

object node {
	voltage_B -9959.29-17250j;
	phases BN;
	nominal_voltage 19918.58;
	name R5-35-00-1_node_121;
};

object node {
	voltage_B -9959.29-17250j;
	phases BN;
	nominal_voltage 19918.58;
	name R5-35-00-1_node_122;
};

object node {
	voltage_B -9959.29-17250j;
	phases BN;
	nominal_voltage 19918.58;
	name R5-35-00-1_node_123;
};

object node {
	voltage_B -9959.29-17250j;
	phases BN;
	nominal_voltage 19918.58;
	name R5-35-00-1_node_124;
};

object node {
	voltage_C -9959.29+17250j;
	phases CN;
	nominal_voltage 19918.58;
	name R5-35-00-1_node_125;
};

object node {
	phases AN;
	nominal_voltage 19918.58;
	name R5-35-00-1_node_126;
	voltage_A 19918.58+0.0j;
};

object node {
	phases AN;
	nominal_voltage 19918.58;
	name R5-35-00-1_node_127;
	voltage_A 19918.58+0.0j;
};

object node {
	voltage_C -9959.29+17250j;
	phases CN;
	nominal_voltage 19918.58;
	name R5-35-00-1_node_128;
};

object node {
	voltage_C -9959.29+17250j;
	phases CN;
	nominal_voltage 19918.58;
	name R5-35-00-1_node_129;
};

object node {
	voltage_C -9959.29+17250j;
	phases CN;
	nominal_voltage 19918.58;
	name R5-35-00-1_node_130;
};

object node {
	voltage_C -9959.29+17250j;
	phases CN;
	nominal_voltage 19918.58;
	name R5-35-00-1_node_131;
};

object node {
	voltage_B -9959.29-17250j;
	phases BN;
	nominal_voltage 19918.58;
	name R5-35-00-1_node_132;
};

object node {
	voltage_C -9959.29+17250j;
	phases CN;
	nominal_voltage 19918.58;
	name R5-35-00-1_node_133;
};

object node {
	voltage_B -9959.29-17250j;
	phases BN;
	nominal_voltage 19918.58;
	name R5-35-00-1_node_134;
};

object node {
	phases AN;
	nominal_voltage 19918.58;
	name R5-35-00-1_node_135;
	voltage_A 19918.58+0.0j;
};

object node {
	phases AN;
	nominal_voltage 19918.58;
	name R5-35-00-1_node_136;
	voltage_A 19918.58+0.0j;
};

object node {
	phases AN;
	nominal_voltage 19918.58;
	name R5-35-00-1_node_137;
	voltage_A 19918.58+0.0j;
};

object node {
	phases AN;
	nominal_voltage 19918.58;
	name R5-35-00-1_node_138;
	voltage_A 19918.58+0.0j;
};

object node {
	phases AN;
	nominal_voltage 19918.58;
	name R5-35-00-1_node_139;
	voltage_A 19918.58+0.0j;
};

object node {
	phases AN;
	nominal_voltage 19918.58;
	name R5-35-00-1_node_140;
	voltage_A 19918.58+0.0j;
};

object node {
	phases AN;
	nominal_voltage 19918.58;
	name R5-35-00-1_node_141;
	voltage_A 19918.58+0.0j;
};

object node {
	phases AN;
	nominal_voltage 19918.58;
	name R5-35-00-1_node_142;
	voltage_A 19918.58+0.0j;
};

object node {
	phases AN;
	nominal_voltage 19918.58;
	name R5-35-00-1_node_143;
	voltage_A 19918.58+0.0j;
};

object node {
	voltage_B -9959.29-17250j;
	phases BN;
	nominal_voltage 19918.58;
	name R5-35-00-1_node_144;
};

object node {
	voltage_B -9959.29-17250j;
	phases BN;
	nominal_voltage 19918.58;
	name R5-35-00-1_node_145;
};

object node {
	voltage_B -9959.29-17250j;
	phases BN;
	nominal_voltage 19918.58;
	name R5-35-00-1_node_146;
};

object node {
	phases AN;
	nominal_voltage 19918.58;
	name R5-35-00-1_node_147;
	voltage_A 19918.58+0.0j;
};

object node {
	phases AN;
	nominal_voltage 19918.58;
	name R5-35-00-1_node_148;
	voltage_A 19918.58+0.0j;
};

object node {
	phases AN;
	nominal_voltage 19918.58;
	name R5-35-00-1_node_149;
	voltage_A 19918.58+0.0j;
};

object node {
	phases AN;
	nominal_voltage 19918.58;
	name R5-35-00-1_node_150;
	voltage_A 19918.58+0.0j;
};

object node {
	phases AN;
	nominal_voltage 19918.58;
	name R5-35-00-1_node_151;
	voltage_A 19918.58+0.0j;
};

object node {
	voltage_C -9959.29+17250j;
	phases CN;
	nominal_voltage 19918.58;
	name R5-35-00-1_node_152;
};

object node {
	voltage_B -9959.29-17250j;
	phases BN;
	nominal_voltage 19918.58;
	name R5-35-00-1_node_153;
};

object node {
	phases ABCN;
	name R5-35-00-1_node_154;
	voltage_B -9959.29-17250j;
	voltage_C -9959.29+17250j;
	voltage_A 19918.58+0.0j;
	nominal_voltage 19918.58;
};

object node {
	phases AN;
	nominal_voltage 19918.58;
	name R5-35-00-1_node_155;
	voltage_A 19918.58+0.0j;
};

object node {
	phases AN;
	nominal_voltage 19918.58;
	name R5-35-00-1_node_156;
	voltage_A 19918.58+0.0j;
};

object node {
	phases AN;
	nominal_voltage 19918.58;
	name R5-35-00-1_node_157;
	voltage_A 19918.58+0.0j;
};

object node {
	phases AN;
	nominal_voltage 19918.58;
	name R5-35-00-1_node_158;
	voltage_A 19918.58+0.0j;
};

object node {
	phases AN;
	nominal_voltage 19918.58;
	name R5-35-00-1_node_159;
	voltage_A 19918.58+0.0j;
};

object node {
	phases AN;
	nominal_voltage 19918.58;
	name R5-35-00-1_node_160;
	voltage_A 19918.58+0.0j;
};

object node {
	phases AN;
	nominal_voltage 19918.58;
	name R5-35-00-1_node_161;
	voltage_A 19918.58+0.0j;
};

object node {
	phases ABCN;
	name R5-35-00-1_node_162;
	voltage_B -9959.29-17250j;
	voltage_C -9959.29+17250j;
	voltage_A 19918.58+0.0j;
	nominal_voltage 19918.58;
};

object node {
	phases ABCN;
	name R5-35-00-1_node_163;
	voltage_B -9959.29-17250j;
	voltage_C -9959.29+17250j;
	voltage_A 19918.58+0.0j;
	nominal_voltage 19918.58;
};

object node {
	phases ABCN;
	name R5-35-00-1_node_164;
	voltage_B -9959.29-17250j;
	voltage_C -9959.29+17250j;
	voltage_A 19918.58+0.0j;
	nominal_voltage 19918.58;
};

object node {
	phases ABCN;
	name R5-35-00-1_node_165;
	voltage_B -9959.29-17250j;
	voltage_C -9959.29+17250j;
	voltage_A 19918.58+0.0j;
	nominal_voltage 19918.58;
};

object node {
	phases ABCN;
	name R5-35-00-1_node_166;
	voltage_B -9959.29-17250j;
	voltage_C -9959.29+17250j;
	voltage_A 19918.58+0.0j;
	nominal_voltage 19918.58;
};

object node {
	phases ABCN;
	name R5-35-00-1_node_167;
	voltage_B -9959.29-17250j;
	voltage_C -9959.29+17250j;
	voltage_A 19918.58+0.0j;
	nominal_voltage 19918.58;
};

object node {
	voltage_C -9959.29+17250j;
	phases CN;
	nominal_voltage 19918.58;
	name R5-35-00-1_node_168;
};

object node {
	voltage_C -9959.29+17250j;
	phases CN;
	nominal_voltage 19918.58;
	name R5-35-00-1_node_169;
};

object node {
	voltage_C -9959.29+17250j;
	phases CN;
	nominal_voltage 19918.58;
	name R5-35-00-1_node_170;
};

object node {
	voltage_C -9959.29+17250j;
	phases CN;
	nominal_voltage 19918.58;
	name R5-35-00-1_node_171;
};

object node {
	voltage_C -9959.29+17250j;
	phases CN;
	nominal_voltage 19918.58;
	name R5-35-00-1_node_172;
};

object node {
	voltage_C -9959.29+17250j;
	phases CN;
	nominal_voltage 19918.58;
	name R5-35-00-1_node_173;
};

object node {
	voltage_C -9959.29+17250j;
	phases CN;
	nominal_voltage 19918.58;
	name R5-35-00-1_node_174;
};

object node {
	voltage_B -9959.29-17250j;
	phases BN;
	nominal_voltage 19918.58;
	name R5-35-00-1_node_175;
};

object node {
	voltage_B -9959.29-17250j;
	phases BN;
	nominal_voltage 19918.58;
	name R5-35-00-1_node_176;
};

object node {
	voltage_B -9959.29-17250j;
	phases BN;
	nominal_voltage 19918.58;
	name R5-35-00-1_node_177;
};

object node {
	voltage_B -9959.29-17250j;
	phases BN;
	nominal_voltage 19918.58;
	name R5-35-00-1_node_178;
};

object node {
	voltage_B -9959.29-17250j;
	phases BN;
	nominal_voltage 19918.58;
	name R5-35-00-1_node_179;
};

object node {
	voltage_B -9959.29-17250j;
	phases BN;
	nominal_voltage 19918.58;
	name R5-35-00-1_node_180;
};

object node {
	voltage_B -9959.29-17250j;
	phases BN;
	nominal_voltage 19918.58;
	name R5-35-00-1_node_181;
};

object node {
	voltage_B -9959.29-17250j;
	phases BN;
	nominal_voltage 19918.58;
	name R5-35-00-1_node_182;
};

object node {
	voltage_B -9959.29-17250j;
	phases BN;
	nominal_voltage 19918.58;
	name R5-35-00-1_node_183;
};

object node {
	voltage_B -9959.29-17250j;
	phases BN;
	nominal_voltage 19918.58;
	name R5-35-00-1_node_184;
};

object node {
	voltage_C -9959.29+17250j;
	phases CN;
	nominal_voltage 19918.58;
	name R5-35-00-1_node_185;
};

object node {
	voltage_C -9959.29+17250j;
	phases CN;
	nominal_voltage 19918.58;
	name R5-35-00-1_node_186;
};

object node {
	voltage_C -9959.29+17250j;
	phases CN;
	nominal_voltage 19918.58;
	name R5-35-00-1_node_187;
};

object node {
	phases ABCN;
	name R5-35-00-1_node_188;
	voltage_B -9959.29-17250j;
	voltage_C -9959.29+17250j;
	voltage_A 19918.58+0.0j;
	nominal_voltage 19918.58;
};

object node {
	voltage_C -9959.29+17250j;
	phases CN;
	nominal_voltage 19918.58;
	name R5-35-00-1_node_189;
};

object node {
	voltage_C -9959.29+17250j;
	phases CN;
	nominal_voltage 19918.58;
	name R5-35-00-1_node_190;
};

object node {
	voltage_C -9959.29+17250j;
	phases CN;
	nominal_voltage 19918.58;
	name R5-35-00-1_node_191;
};

object node {
	phases ABCN;
	name R5-35-00-1_node_192;
	voltage_B -9959.29-17250j;
	voltage_C -9959.29+17250j;
	voltage_A 19918.58+0.0j;
	nominal_voltage 19918.58;
};

object node {
	phases ABCN;
	name R5-35-00-1_node_193;
	voltage_B -9959.29-17250j;
	voltage_C -9959.29+17250j;
	voltage_A 19918.58+0.0j;
	nominal_voltage 19918.58;
};

object node {
	phases ABCN;
	name R5-35-00-1_node_194;
	voltage_B -9959.29-17250j;
	voltage_C -9959.29+17250j;
	voltage_A 19918.58+0.0j;
	nominal_voltage 19918.58;
};

object node {
	phases ABCN;
	name R5-35-00-1_node_195;
	voltage_B -9959.29-17250j;
	voltage_C -9959.29+17250j;
	voltage_A 19918.58+0.0j;
	nominal_voltage 19918.58;
};

object node {
	phases ABCN;
	name R5-35-00-1_node_196;
	voltage_B -9959.29-17250j;
	voltage_C -9959.29+17250j;
	voltage_A 19918.58+0.0j;
	nominal_voltage 19918.58;
};

object node {
	phases ABCN;
	name R5-35-00-1_node_197;
	voltage_B -9959.29-17250j;
	voltage_C -9959.29+17250j;
	voltage_A 19918.58+0.0j;
	nominal_voltage 19918.58;
};

object node {
	phases ABCN;
	name R5-35-00-1_node_198;
	voltage_B -9959.29-17250j;
	voltage_C -9959.29+17250j;
	voltage_A 19918.58+0.0j;
	nominal_voltage 19918.58;
};

object node {
	phases ABCN;
	name R5-35-00-1_node_199;
	voltage_B -9959.29-17250j;
	voltage_C -9959.29+17250j;
	voltage_A 19918.58+0.0j;
	nominal_voltage 19918.58;
};

object node {
	phases ABCN;
	name R5-35-00-1_node_200;
	voltage_B -9959.29-17250j;
	voltage_C -9959.29+17250j;
	voltage_A 19918.58+0.0j;
	nominal_voltage 19918.58;
};

object node {
	phases ABCN;
	name R5-35-00-1_node_201;
	voltage_B -9959.29-17250j;
	voltage_C -9959.29+17250j;
	voltage_A 19918.58+0.0j;
	nominal_voltage 19918.58;
};

object node {
	phases ABCN;
	name R5-35-00-1_node_202;
	voltage_B -9959.29-17250j;
	voltage_C -9959.29+17250j;
	voltage_A 19918.58+0.0j;
	nominal_voltage 19918.58;
};

object node {
	phases ABCN;
	name R5-35-00-1_node_203;
	voltage_B -9959.29-17250j;
	voltage_C -9959.29+17250j;
	voltage_A 19918.58+0.0j;
	nominal_voltage 19918.58;
};

object node {
	phases ABCN;
	name R5-35-00-1_node_204;
	voltage_B -9959.29-17250j;
	voltage_C -9959.29+17250j;
	voltage_A 19918.58+0.0j;
	nominal_voltage 19918.58;
};

object node {
	phases ABCN;
	name R5-35-00-1_node_205;
	voltage_B -9959.29-17250j;
	voltage_C -9959.29+17250j;
	voltage_A 19918.58+0.0j;
	nominal_voltage 19918.58;
};

object node {
	phases ABCN;
	name R5-35-00-1_node_206;
	voltage_B -9959.29-17250j;
	voltage_C -9959.29+17250j;
	voltage_A 19918.58+0.0j;
	nominal_voltage 19918.58;
};

object node {
	phases ABCN;
	name R5-35-00-1_node_207;
	voltage_B -9959.29-17250j;
	voltage_C -9959.29+17250j;
	voltage_A 19918.58+0.0j;
	nominal_voltage 19918.58;
};

object node {
	phases ABCN;
	name R5-35-00-1_node_208;
	voltage_B -9959.29-17250j;
	voltage_C -9959.29+17250j;
	voltage_A 19918.58+0.0j;
	nominal_voltage 19918.58;
};

object node {
	phases ABCN;
	name R5-35-00-1_node_209;
	voltage_B -9959.29-17250j;
	voltage_C -9959.29+17250j;
	voltage_A 19918.58+0.0j;
	nominal_voltage 19918.58;
};

object node {
	phases ABCN;
	name R5-35-00-1_node_210;
	voltage_B -9959.29-17250j;
	voltage_C -9959.29+17250j;
	voltage_A 19918.58+0.0j;
	nominal_voltage 19918.58;
};

object node {
	phases ABCN;
	name R5-35-00-1_node_211;
	voltage_B -9959.29-17250j;
	voltage_C -9959.29+17250j;
	voltage_A 19918.58+0.0j;
	nominal_voltage 19918.58;
};

object node {
	phases ABCN;
	name R5-35-00-1_node_212;
	voltage_B -9959.29-17250j;
	voltage_C -9959.29+17250j;
	voltage_A 19918.58+0.0j;
	nominal_voltage 19918.58;
};

object node {
	phases ABCN;
	name R5-35-00-1_node_213;
	voltage_B -9959.29-17250j;
	voltage_C -9959.29+17250j;
	voltage_A 19918.58+0.0j;
	nominal_voltage 19918.58;
};

object node {
	phases ABCN;
	name R5-35-00-1_node_214;
	voltage_B -9959.29-17250j;
	voltage_C -9959.29+17250j;
	voltage_A 19918.58+0.0j;
	nominal_voltage 19918.58;
};

object node {
	phases ABCN;
	name R5-35-00-1_node_215;
	voltage_B -9959.29-17250j;
	voltage_C -9959.29+17250j;
	voltage_A 19918.58+0.0j;
	nominal_voltage 19918.58;
};

object node {
	phases ABCN;
	name R5-35-00-1_node_216;
	voltage_B -9959.29-17250j;
	voltage_C -9959.29+17250j;
	voltage_A 19918.58+0.0j;
	nominal_voltage 19918.58;
};

object node {
	phases ABCN;
	name R5-35-00-1_node_217;
	voltage_B -9959.29-17250j;
	voltage_C -9959.29+17250j;
	voltage_A 19918.58+0.0j;
	nominal_voltage 19918.58;
};

object node {
	phases ABCN;
	name R5-35-00-1_node_218;
	voltage_B -9959.29-17250j;
	voltage_C -9959.29+17250j;
	voltage_A 19918.58+0.0j;
	nominal_voltage 19918.58;
};

object node {
	phases ABCN;
	name R5-35-00-1_node_219;
	voltage_B -9959.29-17250j;
	voltage_C -9959.29+17250j;
	voltage_A 19918.58+0.0j;
	nominal_voltage 19918.58;
};

object node {
	phases AN;
	nominal_voltage 19918.58;
	name R5-35-00-1_node_220;
	voltage_A 19918.58+0.0j;
};

object node {
	voltage_C -9959.29+17250j;
	phases CN;
	nominal_voltage 19918.58;
	name R5-35-00-1_node_221;
};

object node {
	voltage_B -9959.29-17250j;
	phases BN;
	nominal_voltage 19918.58;
	name R5-35-00-1_node_222;
};

object node {
	phases ABCN;
	name R5-35-00-1_node_223;
	voltage_B -9959.29-17250j;
	voltage_C -9959.29+17250j;
	voltage_A 19918.58+0.0j;
	nominal_voltage 19918.58;
};

object node {
	phases ABCN;
	name R5-35-00-1_node_224;
	voltage_B -9959.29-17250j;
	voltage_C -9959.29+17250j;
	voltage_A 19918.58+0.0j;
	nominal_voltage 19918.58;
};

object node {
	phases ABCN;
	name R5-35-00-1_node_225;
	voltage_B -9959.29-17250j;
	voltage_C -9959.29+17250j;
	voltage_A 19918.58+0.0j;
	nominal_voltage 19918.58;
};

object node {
	phases ABCN;
	name R5-35-00-1_node_226;
	voltage_B -9959.29-17250j;
	voltage_C -9959.29+17250j;
	voltage_A 19918.58+0.0j;
	nominal_voltage 19918.58;
};

object node {
	voltage_C -9959.29+17250j;
	phases CN;
	nominal_voltage 19918.58;
	name R5-35-00-1_node_227;
};

object node {
	phases ABCN;
	name R5-35-00-1_node_228;
	voltage_B -9959.29-17250j;
	voltage_C -9959.29+17250j;
	voltage_A 19918.58+0.0j;
	nominal_voltage 19918.58;
};

object node {
	phases ABCN;
	name R5-35-00-1_node_229;
	voltage_B -9959.29-17250j;
	voltage_C -9959.29+17250j;
	voltage_A 19918.58+0.0j;
	nominal_voltage 19918.58;
};

object node {
	voltage_B -9959.29-17250j;
	phases BN;
	nominal_voltage 19918.58;
	name R5-35-00-1_node_230;
};

object node {
	phases AN;
	nominal_voltage 19918.58;
	name R5-35-00-1_node_231;
	voltage_A 19918.58+0.0j;
};

object node {
	phases ABCN;
	name R5-35-00-1_node_232;
	voltage_B -9959.29-17250j;
	voltage_C -9959.29+17250j;
	voltage_A 19918.58+0.0j;
	nominal_voltage 19918.58;
};

object node {
	phases ABCN;
	name R5-35-00-1_node_233;
	voltage_B -9959.29-17250j;
	voltage_C -9959.29+17250j;
	voltage_A 19918.58+0.0j;
	nominal_voltage 19918.58;
};

object node {
	phases AN;
	nominal_voltage 19918.58;
	name R5-35-00-1_node_234;
	voltage_A 19918.58+0.0j;
};

object node {
	voltage_B -9959.29-17250j;
	phases BN;
	nominal_voltage 19918.58;
	name R5-35-00-1_node_235;
};

object node {
	voltage_B -9959.29-17250j;
	phases BN;
	nominal_voltage 19918.58;
	name R5-35-00-1_node_236;
};

object node {
	phases ABCN;
	name R5-35-00-1_node_237;
	voltage_B -9959.29-17250j;
	voltage_C -9959.29+17250j;
	voltage_A 19918.58+0.0j;
	nominal_voltage 19918.58;
};

object node {
	voltage_B -9959.29-17250j;
	phases BN;
	nominal_voltage 19918.58;
	name R5-35-00-1_node_238;
};

object node {
	phases ABCN;
	name R5-35-00-1_node_239;
	voltage_B -9959.29-17250j;
	voltage_C -9959.29+17250j;
	voltage_A 19918.58+0.0j;
	nominal_voltage 19918.58;
};

object node {
	phases ABCN;
	name R5-35-00-1_node_240;
	voltage_B -9959.29-17250j;
	voltage_C -9959.29+17250j;
	voltage_A 19918.58+0.0j;
	nominal_voltage 19918.58;
};

object node {
	phases AN;
	nominal_voltage 19918.58;
	name R5-35-00-1_node_241;
	voltage_A 19918.58+0.0j;
};

object node {
	voltage_C -9959.29+17250j;
	phases CN;
	nominal_voltage 19918.58;
	name R5-35-00-1_node_242;
};

object node {
	phases ABCN;
	name R5-35-00-1_node_243;
	voltage_B -9959.29-17250j;
	voltage_C -9959.29+17250j;
	voltage_A 19918.58+0.0j;
	nominal_voltage 19918.58;
};

object node {
	phases ABCN;
	name R5-35-00-1_node_244;
	voltage_B -9959.29-17250j;
	voltage_C -9959.29+17250j;
	voltage_A 19918.58+0.0j;
	nominal_voltage 19918.58;
};

object node {
	phases ABCN;
	name R5-35-00-1_node_245;
	voltage_B -9959.29-17250j;
	voltage_C -9959.29+17250j;
	voltage_A 19918.58+0.0j;
	nominal_voltage 19918.58;
};

object node {
	phases ABCN;
	name R5-35-00-1_node_246;
	voltage_B -9959.29-17250j;
	voltage_C -9959.29+17250j;
	voltage_A 19918.58+0.0j;
	nominal_voltage 19918.58;
};

object node {
	phases ABCN;
	name R5-35-00-1_node_247;
	voltage_B -9959.29-17250j;
	voltage_C -9959.29+17250j;
	voltage_A 19918.58+0.0j;
	nominal_voltage 19918.58;
};

object node {
	phases ABCN;
	name R5-35-00-1_node_248;
	voltage_B -9959.29-17250j;
	voltage_C -9959.29+17250j;
	voltage_A 19918.58+0.0j;
	nominal_voltage 19918.58;
};

object node {
	voltage_C -9959.29+17250j;
	phases CN;
	nominal_voltage 19918.58;
	name R5-35-00-1_node_249;
};

object node {
	phases ABCN;
	name R5-35-00-1_node_250;
	voltage_B -9959.29-17250j;
	voltage_C -9959.29+17250j;
	voltage_A 19918.58+0.0j;
	nominal_voltage 19918.58;
};

object node {
	phases ABCN;
	name R5-35-00-1_node_251;
	voltage_B -9959.29-17250j;
	voltage_C -9959.29+17250j;
	voltage_A 19918.58+0.0j;
	nominal_voltage 19918.58;
};

object node {
	phases ABCN;
	name R5-35-00-1_node_252;
	voltage_B -9959.29-17250j;
	voltage_C -9959.29+17250j;
	voltage_A 19918.58+0.0j;
	nominal_voltage 19918.58;
};

object node {
	phases ABCN;
	name R5-35-00-1_node_253;
	voltage_B -9959.29-17250j;
	voltage_C -9959.29+17250j;
	voltage_A 19918.58+0.0j;
	nominal_voltage 19918.58;
};

object node {
	phases ABCN;
	name R5-35-00-1_node_254;
	voltage_B -9959.29-17250j;
	voltage_C -9959.29+17250j;
	voltage_A 19918.58+0.0j;
	nominal_voltage 19918.58;
};

object node {
	phases AN;
	nominal_voltage 19918.58;
	name R5-35-00-1_node_255;
	voltage_A 19918.58+0.0j;
};

object node {
	phases ABCN;
	name R5-35-00-1_node_256;
	voltage_B -9959.29-17250j;
	voltage_C -9959.29+17250j;
	voltage_A 19918.58+0.0j;
	nominal_voltage 19918.58;
};

object node {
	phases ABCN;
	name R5-35-00-1_node_257;
	voltage_B -9959.29-17250j;
	voltage_C -9959.29+17250j;
	voltage_A 19918.58+0.0j;
	nominal_voltage 19918.58;
};

object node {
	phases ABCN;
	name R5-35-00-1_node_258;
	voltage_B -9959.29-17250j;
...